
---------- Begin Simulation Statistics ----------
simSeconds                                   0.000040                       # Number of seconds simulated (Second)
simTicks                                     39839068                       # Number of ticks simulated (Tick)
finalTick                                   192733508                       # Number of ticks from beginning of simulation (restored from checkpoints and never reset) (Tick)
simFreq                                  1000000000000                       # The number of ticks per simulated second ((Tick/Second))
hostSeconds                                      3.01                       # Real time elapsed on the host (Second)
hostTickRate                                 13249802                       # The number of ticks simulated per host second (ticks/s) ((Tick/Second))
hostMemory                                    2480632                       # Number of bytes of host memory used (Byte)
simInsts                                       112604                       # Number of instructions simulated (Count)
simOps                                         126939                       # Number of ops (including micro ops) simulated (Count)
hostInstRate                                    37428                       # Simulator instruction rate (inst/s) ((Count/Second))
hostOpRate                                      42190                       # Simulator op (including micro ops) rate (op/s) ((Count/Second))
system.clk_domain.clock                          1000                       # Clock period in ticks (Tick)
system.cpu_cluster.clk_domain.clock               556                       # Clock period in ticks (Tick)
system.cpu_cluster.cpus.numCycles               71653                       # Number of cpu cycles simulated (Cycle)
system.cpu_cluster.cpus.cpi                  0.636327                       # CPI: cycles per instruction (core level) ((Cycle/Count))
system.cpu_cluster.cpus.ipc                  1.571518                       # IPC: instructions per cycle (core level) ((Count/Cycle))
system.cpu_cluster.cpus.numWorkItemsStarted            0                       # Number of work items this cpu started (Count)
system.cpu_cluster.cpus.numWorkItemsCompleted            0                       # Number of work items this cpu completed (Count)
system.cpu_cluster.cpus.instsAdded             126856                       # Number of instructions added to the IQ (excludes non-spec) (Count)
system.cpu_cluster.cpus.nonSpecInstsAdded            1                       # Number of non-speculative instructions added to the IQ (Count)
system.cpu_cluster.cpus.instsIssued            137097                       # Number of instructions issued (Count)
system.cpu_cluster.cpus.squashedInstsExamined            2                       # Number of squashed instructions iterated over during squash; mainly for profiling (Count)
system.cpu_cluster.cpus.numIssuedDist::samples        71653                       # Number of insts issued each cycle (Count)
system.cpu_cluster.cpus.numIssuedDist::mean     1.913346                       # Number of insts issued each cycle (Count)
system.cpu_cluster.cpus.numIssuedDist::stdev     1.582987                       # Number of insts issued each cycle (Count)
system.cpu_cluster.cpus.numIssuedDist::underflows            0      0.00%      0.00% # Number of insts issued each cycle (Count)
system.cpu_cluster.cpus.numIssuedDist::0        13334     18.61%     18.61% # Number of insts issued each cycle (Count)
system.cpu_cluster.cpus.numIssuedDist::1        19432     27.12%     45.73% # Number of insts issued each cycle (Count)
system.cpu_cluster.cpus.numIssuedDist::2        20460     28.55%     74.28% # Number of insts issued each cycle (Count)
system.cpu_cluster.cpus.numIssuedDist::3         6155      8.59%     82.87% # Number of insts issued each cycle (Count)
system.cpu_cluster.cpus.numIssuedDist::4         6138      8.57%     91.44% # Number of insts issued each cycle (Count)
system.cpu_cluster.cpus.numIssuedDist::5         3076      4.29%     95.73% # Number of insts issued each cycle (Count)
system.cpu_cluster.cpus.numIssuedDist::6         3058      4.27%    100.00% # Number of insts issued each cycle (Count)
system.cpu_cluster.cpus.numIssuedDist::7            0      0.00%    100.00% # Number of insts issued each cycle (Count)
system.cpu_cluster.cpus.numIssuedDist::8            0      0.00%    100.00% # Number of insts issued each cycle (Count)
system.cpu_cluster.cpus.numIssuedDist::overflows            0      0.00%    100.00% # Number of insts issued each cycle (Count)
system.cpu_cluster.cpus.numIssuedDist::min_value            0                       # Number of insts issued each cycle (Count)
system.cpu_cluster.cpus.numIssuedDist::max_value            6                       # Number of insts issued each cycle (Count)
system.cpu_cluster.cpus.numIssuedDist::total        71653                       # Number of insts issued each cycle (Count)
system.cpu_cluster.cpus.statFuBusy::No_OpClass            0      0.00%      0.00% # attempts to use FU when none available (Count)
system.cpu_cluster.cpus.statFuBusy::IntAlu         1039      7.80%      7.80% # attempts to use FU when none available (Count)
system.cpu_cluster.cpus.statFuBusy::IntMult            0      0.00%      7.80% # attempts to use FU when none available (Count)
system.cpu_cluster.cpus.statFuBusy::IntDiv            0      0.00%      7.80% # attempts to use FU when none available (Count)
system.cpu_cluster.cpus.statFuBusy::FloatAdd            0      0.00%      7.80% # attempts to use FU when none available (Count)
system.cpu_cluster.cpus.statFuBusy::FloatCmp            0      0.00%      7.80% # attempts to use FU when none available (Count)
system.cpu_cluster.cpus.statFuBusy::FloatCvt            3      0.02%      7.82% # attempts to use FU when none available (Count)
system.cpu_cluster.cpus.statFuBusy::FloatMult         1018      7.64%     15.46% # attempts to use FU when none available (Count)
system.cpu_cluster.cpus.statFuBusy::FloatMultAcc            1      0.01%     15.47% # attempts to use FU when none available (Count)
system.cpu_cluster.cpus.statFuBusy::FloatDiv            0      0.00%     15.47% # attempts to use FU when none available (Count)
system.cpu_cluster.cpus.statFuBusy::FloatMisc            2      0.02%     15.49% # attempts to use FU when none available (Count)
system.cpu_cluster.cpus.statFuBusy::FloatSqrt            0      0.00%     15.49% # attempts to use FU when none available (Count)
system.cpu_cluster.cpus.statFuBusy::SimdAdd            0      0.00%     15.49% # attempts to use FU when none available (Count)
system.cpu_cluster.cpus.statFuBusy::SimdAddAcc            0      0.00%     15.49% # attempts to use FU when none available (Count)
system.cpu_cluster.cpus.statFuBusy::SimdAlu            0      0.00%     15.49% # attempts to use FU when none available (Count)
system.cpu_cluster.cpus.statFuBusy::SimdCmp            0      0.00%     15.49% # attempts to use FU when none available (Count)
system.cpu_cluster.cpus.statFuBusy::SimdCvt            0      0.00%     15.49% # attempts to use FU when none available (Count)
system.cpu_cluster.cpus.statFuBusy::SimdMisc            0      0.00%     15.49% # attempts to use FU when none available (Count)
system.cpu_cluster.cpus.statFuBusy::SimdMult            0      0.00%     15.49% # attempts to use FU when none available (Count)
system.cpu_cluster.cpus.statFuBusy::SimdMultAcc            0      0.00%     15.49% # attempts to use FU when none available (Count)
system.cpu_cluster.cpus.statFuBusy::SimdMatMultAcc            0      0.00%     15.49% # attempts to use FU when none available (Count)
system.cpu_cluster.cpus.statFuBusy::SimdShift         2042     15.33%     30.81% # attempts to use FU when none available (Count)
system.cpu_cluster.cpus.statFuBusy::SimdShiftAcc            0      0.00%     30.81% # attempts to use FU when none available (Count)
system.cpu_cluster.cpus.statFuBusy::SimdDiv            0      0.00%     30.81% # attempts to use FU when none available (Count)
system.cpu_cluster.cpus.statFuBusy::SimdSqrt            0      0.00%     30.81% # attempts to use FU when none available (Count)
system.cpu_cluster.cpus.statFuBusy::SimdFloatAdd            0      0.00%     30.81% # attempts to use FU when none available (Count)
system.cpu_cluster.cpus.statFuBusy::SimdFloatAlu            0      0.00%     30.81% # attempts to use FU when none available (Count)
system.cpu_cluster.cpus.statFuBusy::SimdFloatCmp            0      0.00%     30.81% # attempts to use FU when none available (Count)
system.cpu_cluster.cpus.statFuBusy::SimdFloatCvt            0      0.00%     30.81% # attempts to use FU when none available (Count)
system.cpu_cluster.cpus.statFuBusy::SimdFloatDiv            0      0.00%     30.81% # attempts to use FU when none available (Count)
system.cpu_cluster.cpus.statFuBusy::SimdFloatMisc            0      0.00%     30.81% # attempts to use FU when none available (Count)
system.cpu_cluster.cpus.statFuBusy::SimdFloatMult            0      0.00%     30.81% # attempts to use FU when none available (Count)
system.cpu_cluster.cpus.statFuBusy::SimdFloatMultAcc            0      0.00%     30.81% # attempts to use FU when none available (Count)
system.cpu_cluster.cpus.statFuBusy::SimdFloatMatMultAcc            0      0.00%     30.81% # attempts to use FU when none available (Count)
system.cpu_cluster.cpus.statFuBusy::SimdFloatSqrt            0      0.00%     30.81% # attempts to use FU when none available (Count)
system.cpu_cluster.cpus.statFuBusy::SimdReduceAdd            0      0.00%     30.81% # attempts to use FU when none available (Count)
system.cpu_cluster.cpus.statFuBusy::SimdReduceAlu            0      0.00%     30.81% # attempts to use FU when none available (Count)
system.cpu_cluster.cpus.statFuBusy::SimdReduceCmp            0      0.00%     30.81% # attempts to use FU when none available (Count)
system.cpu_cluster.cpus.statFuBusy::SimdFloatReduceAdd            0      0.00%     30.81% # attempts to use FU when none available (Count)
system.cpu_cluster.cpus.statFuBusy::SimdFloatReduceCmp            0      0.00%     30.81% # attempts to use FU when none available (Count)
system.cpu_cluster.cpus.statFuBusy::SimdAes            0      0.00%     30.81% # attempts to use FU when none available (Count)
system.cpu_cluster.cpus.statFuBusy::SimdAesMix            0      0.00%     30.81% # attempts to use FU when none available (Count)
system.cpu_cluster.cpus.statFuBusy::SimdSha1Hash            0      0.00%     30.81% # attempts to use FU when none available (Count)
system.cpu_cluster.cpus.statFuBusy::SimdSha1Hash2            0      0.00%     30.81% # attempts to use FU when none available (Count)
system.cpu_cluster.cpus.statFuBusy::SimdSha256Hash            0      0.00%     30.81% # attempts to use FU when none available (Count)
system.cpu_cluster.cpus.statFuBusy::SimdSha256Hash2            0      0.00%     30.81% # attempts to use FU when none available (Count)
system.cpu_cluster.cpus.statFuBusy::SimdShaSigma2            0      0.00%     30.81% # attempts to use FU when none available (Count)
system.cpu_cluster.cpus.statFuBusy::SimdShaSigma3            0      0.00%     30.81% # attempts to use FU when none available (Count)
system.cpu_cluster.cpus.statFuBusy::SimdSha3            0      0.00%     30.81% # attempts to use FU when none available (Count)
system.cpu_cluster.cpus.statFuBusy::SimdSm4e            0      0.00%     30.81% # attempts to use FU when none available (Count)
system.cpu_cluster.cpus.statFuBusy::SimdCrc            0      0.00%     30.81% # attempts to use FU when none available (Count)
system.cpu_cluster.cpus.statFuBusy::SimdPredAlu            0      0.00%     30.81% # attempts to use FU when none available (Count)
system.cpu_cluster.cpus.statFuBusy::SimdDotProd            0      0.00%     30.81% # attempts to use FU when none available (Count)
system.cpu_cluster.cpus.statFuBusy::Matrix            0      0.00%     30.81% # attempts to use FU when none available (Count)
system.cpu_cluster.cpus.statFuBusy::MatrixMov            0      0.00%     30.81% # attempts to use FU when none available (Count)
system.cpu_cluster.cpus.statFuBusy::MatrixOP            0      0.00%     30.81% # attempts to use FU when none available (Count)
system.cpu_cluster.cpus.statFuBusy::MemRead         6142     46.10%     76.92% # attempts to use FU when none available (Count)
system.cpu_cluster.cpus.statFuBusy::MemWrite         3075     23.08%    100.00% # attempts to use FU when none available (Count)
system.cpu_cluster.cpus.statFuBusy::FloatMemRead            0      0.00%    100.00% # attempts to use FU when none available (Count)
system.cpu_cluster.cpus.statFuBusy::FloatMemWrite            0      0.00%    100.00% # attempts to use FU when none available (Count)
system.cpu_cluster.cpus.statFuBusy::InstPrefetch            0      0.00%    100.00% # attempts to use FU when none available (Count)
system.cpu_cluster.cpus.statFuBusy::SimdUnitStrideLoad            0      0.00%    100.00% # attempts to use FU when none available (Count)
system.cpu_cluster.cpus.statFuBusy::SimdUnitStrideStore            0      0.00%    100.00% # attempts to use FU when none available (Count)
system.cpu_cluster.cpus.statFuBusy::SimdUnitStrideMaskLoad            0      0.00%    100.00% # attempts to use FU when none available (Count)
system.cpu_cluster.cpus.statFuBusy::SimdUnitStrideMaskStore            0      0.00%    100.00% # attempts to use FU when none available (Count)
system.cpu_cluster.cpus.statFuBusy::SimdStridedLoad            0      0.00%    100.00% # attempts to use FU when none available (Count)
system.cpu_cluster.cpus.statFuBusy::SimdStridedStore            0      0.00%    100.00% # attempts to use FU when none available (Count)
system.cpu_cluster.cpus.statFuBusy::SimdIndexedLoad            0      0.00%    100.00% # attempts to use FU when none available (Count)
system.cpu_cluster.cpus.statFuBusy::SimdIndexedStore            0      0.00%    100.00% # attempts to use FU when none available (Count)
system.cpu_cluster.cpus.statFuBusy::SimdWholeRegisterLoad            0      0.00%    100.00% # attempts to use FU when none available (Count)
system.cpu_cluster.cpus.statFuBusy::SimdWholeRegisterStore            0      0.00%    100.00% # attempts to use FU when none available (Count)
system.cpu_cluster.cpus.statFuBusy::SimdUnitStrideFaultOnlyFirstLoad            0      0.00%    100.00% # attempts to use FU when none available (Count)
system.cpu_cluster.cpus.statFuBusy::SimdUnitStrideSegmentedLoad            0      0.00%    100.00% # attempts to use FU when none available (Count)
system.cpu_cluster.cpus.statFuBusy::SimdUnitStrideSegmentedStore            0      0.00%    100.00% # attempts to use FU when none available (Count)
system.cpu_cluster.cpus.statFuBusy::SimdUnitStrideSegmentedFaultOnlyFirstLoad            0      0.00%    100.00% # attempts to use FU when none available (Count)
system.cpu_cluster.cpus.statFuBusy::SimdStrideSegmentedLoad            0      0.00%    100.00% # attempts to use FU when none available (Count)
system.cpu_cluster.cpus.statFuBusy::SimdStrideSegmentedStore            0      0.00%    100.00% # attempts to use FU when none available (Count)
system.cpu_cluster.cpus.statFuBusy::SimdExt            0      0.00%    100.00% # attempts to use FU when none available (Count)
system.cpu_cluster.cpus.statFuBusy::SimdFloatExt            0      0.00%    100.00% # attempts to use FU when none available (Count)
system.cpu_cluster.cpus.statFuBusy::SimdConfig            0      0.00%    100.00% # attempts to use FU when none available (Count)
system.cpu_cluster.cpus.statFuBusy::SimdBf16Add            0      0.00%    100.00% # attempts to use FU when none available (Count)
system.cpu_cluster.cpus.statFuBusy::SimdBf16Cmp            0      0.00%    100.00% # attempts to use FU when none available (Count)
system.cpu_cluster.cpus.statFuBusy::SimdBf16Cvt            0      0.00%    100.00% # attempts to use FU when none available (Count)
system.cpu_cluster.cpus.statFuBusy::SimdBf16DotProd            0      0.00%    100.00% # attempts to use FU when none available (Count)
system.cpu_cluster.cpus.statFuBusy::SimdBf16MatMultAcc            0      0.00%    100.00% # attempts to use FU when none available (Count)
system.cpu_cluster.cpus.statFuBusy::SimdBf16Mult            0      0.00%    100.00% # attempts to use FU when none available (Count)
system.cpu_cluster.cpus.statFuBusy::SimdBf16MultAcc            0      0.00%    100.00% # attempts to use FU when none available (Count)
system.cpu_cluster.cpus.statFuBusy::Bf16Cvt            0      0.00%    100.00% # attempts to use FU when none available (Count)
system.cpu_cluster.cpus.statFuBusy::System            0      0.00%    100.00% # attempts to use FU when none available (Count)
system.cpu_cluster.cpus.issuedInstType_0::No_OpClass            0      0.00%      0.00% # Number of instructions issued per FU type, per thread (Count)
system.cpu_cluster.cpus.issuedInstType_0::IntAlu        42986     31.35%     31.35% # Number of instructions issued per FU type, per thread (Count)
system.cpu_cluster.cpus.issuedInstType_0::IntMult            0      0.00%     31.35% # Number of instructions issued per FU type, per thread (Count)
system.cpu_cluster.cpus.issuedInstType_0::IntDiv            0      0.00%     31.35% # Number of instructions issued per FU type, per thread (Count)
system.cpu_cluster.cpus.issuedInstType_0::FloatAdd            0      0.00%     31.35% # Number of instructions issued per FU type, per thread (Count)
system.cpu_cluster.cpus.issuedInstType_0::FloatCmp            0      0.00%     31.35% # Number of instructions issued per FU type, per thread (Count)
system.cpu_cluster.cpus.issuedInstType_0::FloatCvt         6135      4.47%     35.83% # Number of instructions issued per FU type, per thread (Count)
system.cpu_cluster.cpus.issuedInstType_0::FloatMult        16364     11.94%     47.77% # Number of instructions issued per FU type, per thread (Count)
system.cpu_cluster.cpus.issuedInstType_0::FloatMultAcc        18409     13.43%     61.19% # Number of instructions issued per FU type, per thread (Count)
system.cpu_cluster.cpus.issuedInstType_0::FloatDiv            0      0.00%     61.19% # Number of instructions issued per FU type, per thread (Count)
system.cpu_cluster.cpus.issuedInstType_0::FloatMisc         4091      2.98%     64.18% # Number of instructions issued per FU type, per thread (Count)
system.cpu_cluster.cpus.issuedInstType_0::FloatSqrt            0      0.00%     64.18% # Number of instructions issued per FU type, per thread (Count)
system.cpu_cluster.cpus.issuedInstType_0::SimdAdd            0      0.00%     64.18% # Number of instructions issued per FU type, per thread (Count)
system.cpu_cluster.cpus.issuedInstType_0::SimdAddAcc            0      0.00%     64.18% # Number of instructions issued per FU type, per thread (Count)
system.cpu_cluster.cpus.issuedInstType_0::SimdAlu            0      0.00%     64.18% # Number of instructions issued per FU type, per thread (Count)
system.cpu_cluster.cpus.issuedInstType_0::SimdCmp            0      0.00%     64.18% # Number of instructions issued per FU type, per thread (Count)
system.cpu_cluster.cpus.issuedInstType_0::SimdCvt         2046      1.49%     65.67% # Number of instructions issued per FU type, per thread (Count)
system.cpu_cluster.cpus.issuedInstType_0::SimdMisc            0      0.00%     65.67% # Number of instructions issued per FU type, per thread (Count)
system.cpu_cluster.cpus.issuedInstType_0::SimdMult            0      0.00%     65.67% # Number of instructions issued per FU type, per thread (Count)
system.cpu_cluster.cpus.issuedInstType_0::SimdMultAcc            0      0.00%     65.67% # Number of instructions issued per FU type, per thread (Count)
system.cpu_cluster.cpus.issuedInstType_0::SimdMatMultAcc            0      0.00%     65.67% # Number of instructions issued per FU type, per thread (Count)
system.cpu_cluster.cpus.issuedInstType_0::SimdShift         2046      1.49%     67.16% # Number of instructions issued per FU type, per thread (Count)
system.cpu_cluster.cpus.issuedInstType_0::SimdShiftAcc            0      0.00%     67.16% # Number of instructions issued per FU type, per thread (Count)
system.cpu_cluster.cpus.issuedInstType_0::SimdDiv            0      0.00%     67.16% # Number of instructions issued per FU type, per thread (Count)
system.cpu_cluster.cpus.issuedInstType_0::SimdSqrt            0      0.00%     67.16% # Number of instructions issued per FU type, per thread (Count)
system.cpu_cluster.cpus.issuedInstType_0::SimdFloatAdd            0      0.00%     67.16% # Number of instructions issued per FU type, per thread (Count)
system.cpu_cluster.cpus.issuedInstType_0::SimdFloatAlu            0      0.00%     67.16% # Number of instructions issued per FU type, per thread (Count)
system.cpu_cluster.cpus.issuedInstType_0::SimdFloatCmp            0      0.00%     67.16% # Number of instructions issued per FU type, per thread (Count)
system.cpu_cluster.cpus.issuedInstType_0::SimdFloatCvt            0      0.00%     67.16% # Number of instructions issued per FU type, per thread (Count)
system.cpu_cluster.cpus.issuedInstType_0::SimdFloatDiv            0      0.00%     67.16% # Number of instructions issued per FU type, per thread (Count)
system.cpu_cluster.cpus.issuedInstType_0::SimdFloatMisc            0      0.00%     67.16% # Number of instructions issued per FU type, per thread (Count)
system.cpu_cluster.cpus.issuedInstType_0::SimdFloatMult            0      0.00%     67.16% # Number of instructions issued per FU type, per thread (Count)
system.cpu_cluster.cpus.issuedInstType_0::SimdFloatMultAcc            0      0.00%     67.16% # Number of instructions issued per FU type, per thread (Count)
system.cpu_cluster.cpus.issuedInstType_0::SimdFloatMatMultAcc            0      0.00%     67.16% # Number of instructions issued per FU type, per thread (Count)
system.cpu_cluster.cpus.issuedInstType_0::SimdFloatSqrt            0      0.00%     67.16% # Number of instructions issued per FU type, per thread (Count)
system.cpu_cluster.cpus.issuedInstType_0::SimdReduceAdd            0      0.00%     67.16% # Number of instructions issued per FU type, per thread (Count)
system.cpu_cluster.cpus.issuedInstType_0::SimdReduceAlu            0      0.00%     67.16% # Number of instructions issued per FU type, per thread (Count)
system.cpu_cluster.cpus.issuedInstType_0::SimdReduceCmp            0      0.00%     67.16% # Number of instructions issued per FU type, per thread (Count)
system.cpu_cluster.cpus.issuedInstType_0::SimdFloatReduceAdd            0      0.00%     67.16% # Number of instructions issued per FU type, per thread (Count)
system.cpu_cluster.cpus.issuedInstType_0::SimdFloatReduceCmp            0      0.00%     67.16% # Number of instructions issued per FU type, per thread (Count)
system.cpu_cluster.cpus.issuedInstType_0::SimdAes            0      0.00%     67.16% # Number of instructions issued per FU type, per thread (Count)
system.cpu_cluster.cpus.issuedInstType_0::SimdAesMix            0      0.00%     67.16% # Number of instructions issued per FU type, per thread (Count)
system.cpu_cluster.cpus.issuedInstType_0::SimdSha1Hash            0      0.00%     67.16% # Number of instructions issued per FU type, per thread (Count)
system.cpu_cluster.cpus.issuedInstType_0::SimdSha1Hash2            0      0.00%     67.16% # Number of instructions issued per FU type, per thread (Count)
system.cpu_cluster.cpus.issuedInstType_0::SimdSha256Hash            0      0.00%     67.16% # Number of instructions issued per FU type, per thread (Count)
system.cpu_cluster.cpus.issuedInstType_0::SimdSha256Hash2            0      0.00%     67.16% # Number of instructions issued per FU type, per thread (Count)
system.cpu_cluster.cpus.issuedInstType_0::SimdShaSigma2            0      0.00%     67.16% # Number of instructions issued per FU type, per thread (Count)
system.cpu_cluster.cpus.issuedInstType_0::SimdShaSigma3            0      0.00%     67.16% # Number of instructions issued per FU type, per thread (Count)
system.cpu_cluster.cpus.issuedInstType_0::SimdSha3            0      0.00%     67.16% # Number of instructions issued per FU type, per thread (Count)
system.cpu_cluster.cpus.issuedInstType_0::SimdSm4e            0      0.00%     67.16% # Number of instructions issued per FU type, per thread (Count)
system.cpu_cluster.cpus.issuedInstType_0::SimdCrc            0      0.00%     67.16% # Number of instructions issued per FU type, per thread (Count)
system.cpu_cluster.cpus.issuedInstType_0::SimdPredAlu            0      0.00%     67.16% # Number of instructions issued per FU type, per thread (Count)
system.cpu_cluster.cpus.issuedInstType_0::SimdDotProd            0      0.00%     67.16% # Number of instructions issued per FU type, per thread (Count)
system.cpu_cluster.cpus.issuedInstType_0::Matrix            0      0.00%     67.16% # Number of instructions issued per FU type, per thread (Count)
system.cpu_cluster.cpus.issuedInstType_0::MatrixMov            0      0.00%     67.16% # Number of instructions issued per FU type, per thread (Count)
system.cpu_cluster.cpus.issuedInstType_0::MatrixOP            0      0.00%     67.16% # Number of instructions issued per FU type, per thread (Count)
system.cpu_cluster.cpus.issuedInstType_0::MemRead        32736     23.88%     91.04% # Number of instructions issued per FU type, per thread (Count)
system.cpu_cluster.cpus.issuedInstType_0::MemWrite        12284      8.96%    100.00% # Number of instructions issued per FU type, per thread (Count)
system.cpu_cluster.cpus.issuedInstType_0::FloatMemRead            0      0.00%    100.00% # Number of instructions issued per FU type, per thread (Count)
system.cpu_cluster.cpus.issuedInstType_0::FloatMemWrite            0      0.00%    100.00% # Number of instructions issued per FU type, per thread (Count)
system.cpu_cluster.cpus.issuedInstType_0::InstPrefetch            0      0.00%    100.00% # Number of instructions issued per FU type, per thread (Count)
system.cpu_cluster.cpus.issuedInstType_0::SimdUnitStrideLoad            0      0.00%    100.00% # Number of instructions issued per FU type, per thread (Count)
system.cpu_cluster.cpus.issuedInstType_0::SimdUnitStrideStore            0      0.00%    100.00% # Number of instructions issued per FU type, per thread (Count)
system.cpu_cluster.cpus.issuedInstType_0::SimdUnitStrideMaskLoad            0      0.00%    100.00% # Number of instructions issued per FU type, per thread (Count)
system.cpu_cluster.cpus.issuedInstType_0::SimdUnitStrideMaskStore            0      0.00%    100.00% # Number of instructions issued per FU type, per thread (Count)
system.cpu_cluster.cpus.issuedInstType_0::SimdStridedLoad            0      0.00%    100.00% # Number of instructions issued per FU type, per thread (Count)
system.cpu_cluster.cpus.issuedInstType_0::SimdStridedStore            0      0.00%    100.00% # Number of instructions issued per FU type, per thread (Count)
system.cpu_cluster.cpus.issuedInstType_0::SimdIndexedLoad            0      0.00%    100.00% # Number of instructions issued per FU type, per thread (Count)
system.cpu_cluster.cpus.issuedInstType_0::SimdIndexedStore            0      0.00%    100.00% # Number of instructions issued per FU type, per thread (Count)
system.cpu_cluster.cpus.issuedInstType_0::SimdWholeRegisterLoad            0      0.00%    100.00% # Number of instructions issued per FU type, per thread (Count)
system.cpu_cluster.cpus.issuedInstType_0::SimdWholeRegisterStore            0      0.00%    100.00% # Number of instructions issued per FU type, per thread (Count)
system.cpu_cluster.cpus.issuedInstType_0::SimdUnitStrideFaultOnlyFirstLoad            0      0.00%    100.00% # Number of instructions issued per FU type, per thread (Count)
system.cpu_cluster.cpus.issuedInstType_0::SimdUnitStrideSegmentedLoad            0      0.00%    100.00% # Number of instructions issued per FU type, per thread (Count)
system.cpu_cluster.cpus.issuedInstType_0::SimdUnitStrideSegmentedStore            0      0.00%    100.00% # Number of instructions issued per FU type, per thread (Count)
system.cpu_cluster.cpus.issuedInstType_0::SimdUnitStrideSegmentedFaultOnlyFirstLoad            0      0.00%    100.00% # Number of instructions issued per FU type, per thread (Count)
system.cpu_cluster.cpus.issuedInstType_0::SimdStrideSegmentedLoad            0      0.00%    100.00% # Number of instructions issued per FU type, per thread (Count)
system.cpu_cluster.cpus.issuedInstType_0::SimdStrideSegmentedStore            0      0.00%    100.00% # Number of instructions issued per FU type, per thread (Count)
system.cpu_cluster.cpus.issuedInstType_0::SimdExt            0      0.00%    100.00% # Number of instructions issued per FU type, per thread (Count)
system.cpu_cluster.cpus.issuedInstType_0::SimdFloatExt            0      0.00%    100.00% # Number of instructions issued per FU type, per thread (Count)
system.cpu_cluster.cpus.issuedInstType_0::SimdConfig            0      0.00%    100.00% # Number of instructions issued per FU type, per thread (Count)
system.cpu_cluster.cpus.issuedInstType_0::SimdBf16Add            0      0.00%    100.00% # Number of instructions issued per FU type, per thread (Count)
system.cpu_cluster.cpus.issuedInstType_0::SimdBf16Cmp            0      0.00%    100.00% # Number of instructions issued per FU type, per thread (Count)
system.cpu_cluster.cpus.issuedInstType_0::SimdBf16Cvt            0      0.00%    100.00% # Number of instructions issued per FU type, per thread (Count)
system.cpu_cluster.cpus.issuedInstType_0::SimdBf16DotProd            0      0.00%    100.00% # Number of instructions issued per FU type, per thread (Count)
system.cpu_cluster.cpus.issuedInstType_0::SimdBf16MatMultAcc            0      0.00%    100.00% # Number of instructions issued per FU type, per thread (Count)
system.cpu_cluster.cpus.issuedInstType_0::SimdBf16Mult            0      0.00%    100.00% # Number of instructions issued per FU type, per thread (Count)
system.cpu_cluster.cpus.issuedInstType_0::SimdBf16MultAcc            0      0.00%    100.00% # Number of instructions issued per FU type, per thread (Count)
system.cpu_cluster.cpus.issuedInstType_0::Bf16Cvt            0      0.00%    100.00% # Number of instructions issued per FU type, per thread (Count)
system.cpu_cluster.cpus.issuedInstType_0::System            0      0.00%    100.00% # Number of instructions issued per FU type, per thread (Count)
system.cpu_cluster.cpus.issuedInstType_0::total       137097                       # Number of instructions issued per FU type, per thread (Count)
system.cpu_cluster.cpus.issueRate            1.913346                       # Inst issue rate ((Count/Cycle))
system.cpu_cluster.cpus.fuBusy                  13322                       # FU busy when requested (Count)
system.cpu_cluster.cpus.fuBusyRate           0.097172                       # FU busy rate (busy events/executed inst) ((Count/Count))
system.cpu_cluster.cpus.intInstQueueReads       189387                       # Number of integer instruction queue reads (Count)
system.cpu_cluster.cpus.intInstQueueWrites        51178                       # Number of integer instruction queue writes (Count)
system.cpu_cluster.cpus.intInstQueueWakeupAccesses        51184                       # Number of integer instruction queue wakeup accesses (Count)
system.cpu_cluster.cpus.fpInstQueueReads            0                       # Number of floating instruction queue reads (Count)
system.cpu_cluster.cpus.fpInstQueueWrites            0                       # Number of floating instruction queue writes (Count)
system.cpu_cluster.cpus.fpInstQueueWakeupAccesses            0                       # Number of floating instruction queue wakeup accesses (Count)
system.cpu_cluster.cpus.vecInstQueueReads       169784                       # Number of vector instruction queue reads (Count)
system.cpu_cluster.cpus.vecInstQueueWrites        75681                       # Number of vector instruction queue writes (Count)
system.cpu_cluster.cpus.vecInstQueueWakeupAccesses        75686                       # Number of vector instruction queue wakeup accesses (Count)
system.cpu_cluster.cpus.intAluAccesses          60414                       # Number of integer alu accesses (Count)
system.cpu_cluster.cpus.fpAluAccesses               0                       # Number of floating point alu accesses (Count)
system.cpu_cluster.cpus.vecAluAccesses          90005                       # Number of vector alu accesses (Count)
system.cpu_cluster.cpus.numRecvResp             34802                       # Number of received responses (Count)
system.cpu_cluster.cpus.numRecvRespBytes       278408                       # Number of received response bytes (Byte)
system.cpu_cluster.cpus.recvRespAvgBW            3.89                       # Average bandwidth of received responses ((Byte/Cycle))
system.cpu_cluster.cpus.recvRespAvgSize          8.00                       # Average packet size per received response ((Byte/Count))
system.cpu_cluster.cpus.recvRespAvgRate          0.49                       # Average rate of received responses per cycle ((Count/Cycle))
system.cpu_cluster.cpus.recvRespAvgRetryRate         0.00                       # Average retry rate per received response ((Count/Count))
system.cpu_cluster.cpus.numSendRetryResp            0                       # Number of retry responses sent (Count)
system.cpu_cluster.cpus.numSquashedInsts            1                       # Number of squashed instructions skipped in execute (Count)
system.cpu_cluster.cpus.numSwp                      0                       # Number of swp insts executed (Count)
system.cpu_cluster.cpus.MemDepUnit__0.insertedLoads        22506                       # Number of loads inserted to the mem dependence unit. (Count)
system.cpu_cluster.cpus.MemDepUnit__0.insertedStores        12281                       # Number of stores inserted to the mem dependence unit. (Count)
system.cpu_cluster.cpus.MemDepUnit__0.conflictingLoads         2045                       # Number of conflicting loads. (Count)
system.cpu_cluster.cpus.MemDepUnit__0.conflictingStores            0                       # Number of conflicting stores. (Count)
system.cpu_cluster.cpus.MemDepUnit__1.insertedLoads            0                       # Number of loads inserted to the mem dependence unit. (Count)
system.cpu_cluster.cpus.MemDepUnit__1.insertedStores            0                       # Number of stores inserted to the mem dependence unit. (Count)
system.cpu_cluster.cpus.MemDepUnit__1.conflictingLoads            0                       # Number of conflicting loads. (Count)
system.cpu_cluster.cpus.MemDepUnit__1.conflictingStores            0                       # Number of conflicting stores. (Count)
system.cpu_cluster.cpus.MemDepUnit__2.insertedLoads            0                       # Number of loads inserted to the mem dependence unit. (Count)
system.cpu_cluster.cpus.MemDepUnit__2.insertedStores            0                       # Number of stores inserted to the mem dependence unit. (Count)
system.cpu_cluster.cpus.MemDepUnit__2.conflictingLoads            0                       # Number of conflicting loads. (Count)
system.cpu_cluster.cpus.MemDepUnit__2.conflictingStores            0                       # Number of conflicting stores. (Count)
system.cpu_cluster.cpus.MemDepUnit__3.insertedLoads            0                       # Number of loads inserted to the mem dependence unit. (Count)
system.cpu_cluster.cpus.MemDepUnit__3.insertedStores            0                       # Number of stores inserted to the mem dependence unit. (Count)
system.cpu_cluster.cpus.MemDepUnit__3.conflictingLoads            0                       # Number of conflicting loads. (Count)
system.cpu_cluster.cpus.MemDepUnit__3.conflictingStores            0                       # Number of conflicting stores. (Count)
system.cpu_cluster.cpus.bac.fetchTargets            0                       # Number of fetch targets created  (Count)
system.cpu_cluster.cpus.bac.branches            10241                       # Number of branches that BAC encountered (Count)
system.cpu_cluster.cpus.bac.predTakenBranches         6148                       # Number of branches that BAC predicted taken. (Count)
system.cpu_cluster.cpus.bac.branchesNotLastuOp            0                       # Number of branches that fetch encountered which are not the last uOp within a macrooperation. Jump to itself. (Count)
system.cpu_cluster.cpus.bac.branchMisspredict            3                       # Number of mispredicted branches (Count)
system.cpu_cluster.cpus.bac.noBranchMisspredict            0                       # Number of non-branch instructions mispredicted (Count)
system.cpu_cluster.cpus.bac.squashBranchDecode            1                       # Number of branches squashed from decode (Count)
system.cpu_cluster.cpus.bac.squashBranchCommit            2                       # Number of branches squashed from commit (Count)
system.cpu_cluster.cpus.bac.preDecUpdate::NoBranch            0                       # Number of branches extracted from the predecoder (Count)
system.cpu_cluster.cpus.bac.preDecUpdate::Return            0                       # Number of branches extracted from the predecoder (Count)
system.cpu_cluster.cpus.bac.preDecUpdate::CallDirect            0                       # Number of branches extracted from the predecoder (Count)
system.cpu_cluster.cpus.bac.preDecUpdate::CallIndirect            0                       # Number of branches extracted from the predecoder (Count)
system.cpu_cluster.cpus.bac.preDecUpdate::DirectCond            0                       # Number of branches extracted from the predecoder (Count)
system.cpu_cluster.cpus.bac.preDecUpdate::DirectUncond            0                       # Number of branches extracted from the predecoder (Count)
system.cpu_cluster.cpus.bac.preDecUpdate::IndirectCond            0                       # Number of branches extracted from the predecoder (Count)
system.cpu_cluster.cpus.bac.preDecUpdate::IndirectUncond            0                       # Number of branches extracted from the predecoder (Count)
system.cpu_cluster.cpus.bac.preDecUpdate::total            0                       # Number of branches extracted from the predecoder (Count)
system.cpu_cluster.cpus.bac.noHistByType::NoBranch            0                       # Number and type of branches that were undetected by the BPU. (Count)
system.cpu_cluster.cpus.bac.noHistByType::Return            0                       # Number and type of branches that were undetected by the BPU. (Count)
system.cpu_cluster.cpus.bac.noHistByType::CallDirect            0                       # Number and type of branches that were undetected by the BPU. (Count)
system.cpu_cluster.cpus.bac.noHistByType::CallIndirect            0                       # Number and type of branches that were undetected by the BPU. (Count)
system.cpu_cluster.cpus.bac.noHistByType::DirectCond            0                       # Number and type of branches that were undetected by the BPU. (Count)
system.cpu_cluster.cpus.bac.noHistByType::DirectUncond            0                       # Number and type of branches that were undetected by the BPU. (Count)
system.cpu_cluster.cpus.bac.noHistByType::IndirectCond            0                       # Number and type of branches that were undetected by the BPU. (Count)
system.cpu_cluster.cpus.bac.noHistByType::IndirectUncond            0                       # Number and type of branches that were undetected by the BPU. (Count)
system.cpu_cluster.cpus.bac.noHistByType::total            0                       # Number and type of branches that were undetected by the BPU. (Count)
system.cpu_cluster.cpus.bac.typeMissmatch            0                       # Number branches where the branch type miss match (Count)
system.cpu_cluster.cpus.bac.multiBranchInst            0                       # Number branches because its not the last branch. (Count)
system.cpu_cluster.cpus.bac.ftSizeDist::samples            0                       # Number of bytes per fetch target (Count)
system.cpu_cluster.cpus.bac.ftSizeDist::mean          nan                       # Number of bytes per fetch target (Count)
system.cpu_cluster.cpus.bac.ftSizeDist::stdev          nan                       # Number of bytes per fetch target (Count)
system.cpu_cluster.cpus.bac.ftSizeDist::underflows            0                       # Number of bytes per fetch target (Count)
system.cpu_cluster.cpus.bac.ftSizeDist::0-3            0                       # Number of bytes per fetch target (Count)
system.cpu_cluster.cpus.bac.ftSizeDist::4-7            0                       # Number of bytes per fetch target (Count)
system.cpu_cluster.cpus.bac.ftSizeDist::8-11            0                       # Number of bytes per fetch target (Count)
system.cpu_cluster.cpus.bac.ftSizeDist::12-15            0                       # Number of bytes per fetch target (Count)
system.cpu_cluster.cpus.bac.ftSizeDist::16-19            0                       # Number of bytes per fetch target (Count)
system.cpu_cluster.cpus.bac.ftSizeDist::20-23            0                       # Number of bytes per fetch target (Count)
system.cpu_cluster.cpus.bac.ftSizeDist::24-27            0                       # Number of bytes per fetch target (Count)
system.cpu_cluster.cpus.bac.ftSizeDist::28-31            0                       # Number of bytes per fetch target (Count)
system.cpu_cluster.cpus.bac.ftSizeDist::32            0                       # Number of bytes per fetch target (Count)
system.cpu_cluster.cpus.bac.ftSizeDist::overflows            0                       # Number of bytes per fetch target (Count)
system.cpu_cluster.cpus.bac.ftSizeDist::min_value            0                       # Number of bytes per fetch target (Count)
system.cpu_cluster.cpus.bac.ftSizeDist::max_value            0                       # Number of bytes per fetch target (Count)
system.cpu_cluster.cpus.bac.ftSizeDist::total            0                       # Number of bytes per fetch target (Count)
system.cpu_cluster.cpus.bac.ftNumber::samples            0                       # Number of fetch target inserted to the FTQ per cycle (Count)
system.cpu_cluster.cpus.bac.ftNumber::mean          nan                       # Number of fetch target inserted to the FTQ per cycle (Count)
system.cpu_cluster.cpus.bac.ftNumber::stdev          nan                       # Number of fetch target inserted to the FTQ per cycle (Count)
system.cpu_cluster.cpus.bac.ftNumber::underflows            0                       # Number of fetch target inserted to the FTQ per cycle (Count)
system.cpu_cluster.cpus.bac.ftNumber::0             0                       # Number of fetch target inserted to the FTQ per cycle (Count)
system.cpu_cluster.cpus.bac.ftNumber::1             0                       # Number of fetch target inserted to the FTQ per cycle (Count)
system.cpu_cluster.cpus.bac.ftNumber::2             0                       # Number of fetch target inserted to the FTQ per cycle (Count)
system.cpu_cluster.cpus.bac.ftNumber::3             0                       # Number of fetch target inserted to the FTQ per cycle (Count)
system.cpu_cluster.cpus.bac.ftNumber::4             0                       # Number of fetch target inserted to the FTQ per cycle (Count)
system.cpu_cluster.cpus.bac.ftNumber::overflows            0                       # Number of fetch target inserted to the FTQ per cycle (Count)
system.cpu_cluster.cpus.bac.ftNumber::min_value            0                       # Number of fetch target inserted to the FTQ per cycle (Count)
system.cpu_cluster.cpus.bac.ftNumber::max_value            0                       # Number of fetch target inserted to the FTQ per cycle (Count)
system.cpu_cluster.cpus.bac.ftNumber::total            0                       # Number of fetch target inserted to the FTQ per cycle (Count)
system.cpu_cluster.cpus.branchPred.lookups_0::NoBranch            0      0.00%      0.00% # Number of BP lookups (Count)
system.cpu_cluster.cpus.branchPred.lookups_0::Return         2054     20.06%     20.06% # Number of BP lookups (Count)
system.cpu_cluster.cpus.branchPred.lookups_0::CallDirect         2052     20.04%     40.09% # Number of BP lookups (Count)
system.cpu_cluster.cpus.branchPred.lookups_0::CallIndirect            0      0.00%     40.09% # Number of BP lookups (Count)
system.cpu_cluster.cpus.branchPred.lookups_0::DirectCond         6135     59.91%    100.00% # Number of BP lookups (Count)
system.cpu_cluster.cpus.branchPred.lookups_0::DirectUncond            0      0.00%    100.00% # Number of BP lookups (Count)
system.cpu_cluster.cpus.branchPred.lookups_0::IndirectCond            0      0.00%    100.00% # Number of BP lookups (Count)
system.cpu_cluster.cpus.branchPred.lookups_0::IndirectUncond            0      0.00%    100.00% # Number of BP lookups (Count)
system.cpu_cluster.cpus.branchPred.lookups_0::total        10241                       # Number of BP lookups (Count)
system.cpu_cluster.cpus.branchPred.squashes_0::NoBranch            0      0.00%      0.00% # Number of branches that got squashed (completely removed) as an earlier branch was mispredicted. (Count)
system.cpu_cluster.cpus.branchPred.squashes_0::Return            6     46.15%     46.15% # Number of branches that got squashed (completely removed) as an earlier branch was mispredicted. (Count)
system.cpu_cluster.cpus.branchPred.squashes_0::CallDirect            5     38.46%     84.62% # Number of branches that got squashed (completely removed) as an earlier branch was mispredicted. (Count)
system.cpu_cluster.cpus.branchPred.squashes_0::CallIndirect            0      0.00%     84.62% # Number of branches that got squashed (completely removed) as an earlier branch was mispredicted. (Count)
system.cpu_cluster.cpus.branchPred.squashes_0::DirectCond            2     15.38%    100.00% # Number of branches that got squashed (completely removed) as an earlier branch was mispredicted. (Count)
system.cpu_cluster.cpus.branchPred.squashes_0::DirectUncond            0      0.00%    100.00% # Number of branches that got squashed (completely removed) as an earlier branch was mispredicted. (Count)
system.cpu_cluster.cpus.branchPred.squashes_0::IndirectCond            0      0.00%    100.00% # Number of branches that got squashed (completely removed) as an earlier branch was mispredicted. (Count)
system.cpu_cluster.cpus.branchPred.squashes_0::IndirectUncond            0      0.00%    100.00% # Number of branches that got squashed (completely removed) as an earlier branch was mispredicted. (Count)
system.cpu_cluster.cpus.branchPred.squashes_0::total           13                       # Number of branches that got squashed (completely removed) as an earlier branch was mispredicted. (Count)
system.cpu_cluster.cpus.branchPred.corrected_0::NoBranch            0      0.00%      0.00% # Number of branches that got corrected but not yet commited. Branches get corrected by decode or after execute. Also a branch misprediction can be detected out-of-order. Therefore, a corrected branch might not end up beeing committed in case an even earlier branch was mispredicted (Count)
system.cpu_cluster.cpus.branchPred.corrected_0::Return            0      0.00%      0.00% # Number of branches that got corrected but not yet commited. Branches get corrected by decode or after execute. Also a branch misprediction can be detected out-of-order. Therefore, a corrected branch might not end up beeing committed in case an even earlier branch was mispredicted (Count)
system.cpu_cluster.cpus.branchPred.corrected_0::CallDirect            1     33.33%     33.33% # Number of branches that got corrected but not yet commited. Branches get corrected by decode or after execute. Also a branch misprediction can be detected out-of-order. Therefore, a corrected branch might not end up beeing committed in case an even earlier branch was mispredicted (Count)
system.cpu_cluster.cpus.branchPred.corrected_0::CallIndirect            0      0.00%     33.33% # Number of branches that got corrected but not yet commited. Branches get corrected by decode or after execute. Also a branch misprediction can be detected out-of-order. Therefore, a corrected branch might not end up beeing committed in case an even earlier branch was mispredicted (Count)
system.cpu_cluster.cpus.branchPred.corrected_0::DirectCond            2     66.67%    100.00% # Number of branches that got corrected but not yet commited. Branches get corrected by decode or after execute. Also a branch misprediction can be detected out-of-order. Therefore, a corrected branch might not end up beeing committed in case an even earlier branch was mispredicted (Count)
system.cpu_cluster.cpus.branchPred.corrected_0::DirectUncond            0      0.00%    100.00% # Number of branches that got corrected but not yet commited. Branches get corrected by decode or after execute. Also a branch misprediction can be detected out-of-order. Therefore, a corrected branch might not end up beeing committed in case an even earlier branch was mispredicted (Count)
system.cpu_cluster.cpus.branchPred.corrected_0::IndirectCond            0      0.00%    100.00% # Number of branches that got corrected but not yet commited. Branches get corrected by decode or after execute. Also a branch misprediction can be detected out-of-order. Therefore, a corrected branch might not end up beeing committed in case an even earlier branch was mispredicted (Count)
system.cpu_cluster.cpus.branchPred.corrected_0::IndirectUncond            0      0.00%    100.00% # Number of branches that got corrected but not yet commited. Branches get corrected by decode or after execute. Also a branch misprediction can be detected out-of-order. Therefore, a corrected branch might not end up beeing committed in case an even earlier branch was mispredicted (Count)
system.cpu_cluster.cpus.branchPred.corrected_0::total            3                       # Number of branches that got corrected but not yet commited. Branches get corrected by decode or after execute. Also a branch misprediction can be detected out-of-order. Therefore, a corrected branch might not end up beeing committed in case an even earlier branch was mispredicted (Count)
system.cpu_cluster.cpus.branchPred.earlyResteers_0::NoBranch            0      0.00%      0.00% # Number of branches that got redirected after decode. (Count)
system.cpu_cluster.cpus.branchPred.earlyResteers_0::Return            0      0.00%      0.00% # Number of branches that got redirected after decode. (Count)
system.cpu_cluster.cpus.branchPred.earlyResteers_0::CallDirect            1    100.00%    100.00% # Number of branches that got redirected after decode. (Count)
system.cpu_cluster.cpus.branchPred.earlyResteers_0::CallIndirect            0      0.00%    100.00% # Number of branches that got redirected after decode. (Count)
system.cpu_cluster.cpus.branchPred.earlyResteers_0::DirectCond            0      0.00%    100.00% # Number of branches that got redirected after decode. (Count)
system.cpu_cluster.cpus.branchPred.earlyResteers_0::DirectUncond            0      0.00%    100.00% # Number of branches that got redirected after decode. (Count)
system.cpu_cluster.cpus.branchPred.earlyResteers_0::IndirectCond            0      0.00%    100.00% # Number of branches that got redirected after decode. (Count)
system.cpu_cluster.cpus.branchPred.earlyResteers_0::IndirectUncond            0      0.00%    100.00% # Number of branches that got redirected after decode. (Count)
system.cpu_cluster.cpus.branchPred.earlyResteers_0::total            1                       # Number of branches that got redirected after decode. (Count)
system.cpu_cluster.cpus.branchPred.committed_0::NoBranch            0      0.00%      0.00% # Number of branches finally committed  (Count)
system.cpu_cluster.cpus.branchPred.committed_0::Return         2049     20.00%     20.00% # Number of branches finally committed  (Count)
system.cpu_cluster.cpus.branchPred.committed_0::CallDirect         2049     20.00%     40.00% # Number of branches finally committed  (Count)
system.cpu_cluster.cpus.branchPred.committed_0::CallIndirect            0      0.00%     40.00% # Number of branches finally committed  (Count)
system.cpu_cluster.cpus.branchPred.committed_0::DirectCond         6144     59.97%     99.97% # Number of branches finally committed  (Count)
system.cpu_cluster.cpus.branchPred.committed_0::DirectUncond            3      0.03%    100.00% # Number of branches finally committed  (Count)
system.cpu_cluster.cpus.branchPred.committed_0::IndirectCond            0      0.00%    100.00% # Number of branches finally committed  (Count)
system.cpu_cluster.cpus.branchPred.committed_0::IndirectUncond            0      0.00%    100.00% # Number of branches finally committed  (Count)
system.cpu_cluster.cpus.branchPred.committed_0::total        10245                       # Number of branches finally committed  (Count)
system.cpu_cluster.cpus.branchPred.mispredicted_0::NoBranch            0      0.00%      0.00% # Number of committed branches that were mispredicted. (Count)
system.cpu_cluster.cpus.branchPred.mispredicted_0::Return            0      0.00%      0.00% # Number of committed branches that were mispredicted. (Count)
system.cpu_cluster.cpus.branchPred.mispredicted_0::CallDirect            2     50.00%     50.00% # Number of committed branches that were mispredicted. (Count)
system.cpu_cluster.cpus.branchPred.mispredicted_0::CallIndirect            0      0.00%     50.00% # Number of committed branches that were mispredicted. (Count)
system.cpu_cluster.cpus.branchPred.mispredicted_0::DirectCond            2     50.00%    100.00% # Number of committed branches that were mispredicted. (Count)
system.cpu_cluster.cpus.branchPred.mispredicted_0::DirectUncond            0      0.00%    100.00% # Number of committed branches that were mispredicted. (Count)
system.cpu_cluster.cpus.branchPred.mispredicted_0::IndirectCond            0      0.00%    100.00% # Number of committed branches that were mispredicted. (Count)
system.cpu_cluster.cpus.branchPred.mispredicted_0::IndirectUncond            0      0.00%    100.00% # Number of committed branches that were mispredicted. (Count)
system.cpu_cluster.cpus.branchPred.mispredicted_0::total            4                       # Number of committed branches that were mispredicted. (Count)
system.cpu_cluster.cpus.branchPred.mispredictDueToPredictor_0::NoBranch            0      0.00%      0.00% # Number of committed branches that were mispredicted by the predictor. (Count)
system.cpu_cluster.cpus.branchPred.mispredictDueToPredictor_0::Return            0      0.00%      0.00% # Number of committed branches that were mispredicted by the predictor. (Count)
system.cpu_cluster.cpus.branchPred.mispredictDueToPredictor_0::CallDirect            0      0.00%      0.00% # Number of committed branches that were mispredicted by the predictor. (Count)
system.cpu_cluster.cpus.branchPred.mispredictDueToPredictor_0::CallIndirect            0      0.00%      0.00% # Number of committed branches that were mispredicted by the predictor. (Count)
system.cpu_cluster.cpus.branchPred.mispredictDueToPredictor_0::DirectCond            2    100.00%    100.00% # Number of committed branches that were mispredicted by the predictor. (Count)
system.cpu_cluster.cpus.branchPred.mispredictDueToPredictor_0::DirectUncond            0      0.00%    100.00% # Number of committed branches that were mispredicted by the predictor. (Count)
system.cpu_cluster.cpus.branchPred.mispredictDueToPredictor_0::IndirectCond            0      0.00%    100.00% # Number of committed branches that were mispredicted by the predictor. (Count)
system.cpu_cluster.cpus.branchPred.mispredictDueToPredictor_0::IndirectUncond            0      0.00%    100.00% # Number of committed branches that were mispredicted by the predictor. (Count)
system.cpu_cluster.cpus.branchPred.mispredictDueToPredictor_0::total            2                       # Number of committed branches that were mispredicted by the predictor. (Count)
system.cpu_cluster.cpus.branchPred.mispredictDueToBTBMiss_0::NoBranch            0      0.00%      0.00% # Number of committed branches that were mispredicted because of a BTB miss. (Count)
system.cpu_cluster.cpus.branchPred.mispredictDueToBTBMiss_0::Return            0      0.00%      0.00% # Number of committed branches that were mispredicted because of a BTB miss. (Count)
system.cpu_cluster.cpus.branchPred.mispredictDueToBTBMiss_0::CallDirect            2    100.00%    100.00% # Number of committed branches that were mispredicted because of a BTB miss. (Count)
system.cpu_cluster.cpus.branchPred.mispredictDueToBTBMiss_0::CallIndirect            0      0.00%    100.00% # Number of committed branches that were mispredicted because of a BTB miss. (Count)
system.cpu_cluster.cpus.branchPred.mispredictDueToBTBMiss_0::DirectCond            0      0.00%    100.00% # Number of committed branches that were mispredicted because of a BTB miss. (Count)
system.cpu_cluster.cpus.branchPred.mispredictDueToBTBMiss_0::DirectUncond            0      0.00%    100.00% # Number of committed branches that were mispredicted because of a BTB miss. (Count)
system.cpu_cluster.cpus.branchPred.mispredictDueToBTBMiss_0::IndirectCond            0      0.00%    100.00% # Number of committed branches that were mispredicted because of a BTB miss. (Count)
system.cpu_cluster.cpus.branchPred.mispredictDueToBTBMiss_0::IndirectUncond            0      0.00%    100.00% # Number of committed branches that were mispredicted because of a BTB miss. (Count)
system.cpu_cluster.cpus.branchPred.mispredictDueToBTBMiss_0::total            2                       # Number of committed branches that were mispredicted because of a BTB miss. (Count)
system.cpu_cluster.cpus.branchPred.targetProvider_0::NoTarget         4093     39.97%     39.97% # The component providing the target for taken branches (Count)
system.cpu_cluster.cpus.branchPred.targetProvider_0::BTB         4094     39.98%     79.94% # The component providing the target for taken branches (Count)
system.cpu_cluster.cpus.branchPred.targetProvider_0::RAS         2054     20.06%    100.00% # The component providing the target for taken branches (Count)
system.cpu_cluster.cpus.branchPred.targetProvider_0::Indirect            0      0.00%    100.00% # The component providing the target for taken branches (Count)
system.cpu_cluster.cpus.branchPred.targetProvider_0::total        10241                       # The component providing the target for taken branches (Count)
system.cpu_cluster.cpus.branchPred.targetWrong_0::NoBranch            2     66.67%     66.67% # Number of branches where the target was incorrect or not available at prediction time. (Count)
system.cpu_cluster.cpus.branchPred.targetWrong_0::Return            1     33.33%    100.00% # Number of branches where the target was incorrect or not available at prediction time. (Count)
system.cpu_cluster.cpus.branchPred.targetWrong_0::CallDirect            0      0.00%    100.00% # Number of branches where the target was incorrect or not available at prediction time. (Count)
system.cpu_cluster.cpus.branchPred.targetWrong_0::CallIndirect            0      0.00%    100.00% # Number of branches where the target was incorrect or not available at prediction time. (Count)
system.cpu_cluster.cpus.branchPred.targetWrong_0::DirectCond            0      0.00%    100.00% # Number of branches where the target was incorrect or not available at prediction time. (Count)
system.cpu_cluster.cpus.branchPred.targetWrong_0::DirectUncond            0      0.00%    100.00% # Number of branches where the target was incorrect or not available at prediction time. (Count)
system.cpu_cluster.cpus.branchPred.targetWrong_0::IndirectCond            0      0.00%    100.00% # Number of branches where the target was incorrect or not available at prediction time. (Count)
system.cpu_cluster.cpus.branchPred.targetWrong_0::IndirectUncond            0      0.00%    100.00% # Number of branches where the target was incorrect or not available at prediction time. (Count)
system.cpu_cluster.cpus.branchPred.targetWrong_0::total            3                       # Number of branches where the target was incorrect or not available at prediction time. (Count)
system.cpu_cluster.cpus.branchPred.condPredicted         6135                       # Number of conditional branches predicted (Count)
system.cpu_cluster.cpus.branchPred.condPredictedTaken         2044                       # Number of conditional branches predicted as taken (Count)
system.cpu_cluster.cpus.branchPred.condIncorrect            4                       # Number of conditional branches incorrect (Count)
system.cpu_cluster.cpus.branchPred.predTakenBTBMiss            1                       # Number of branches predicted taken but missed in BTB (Count)
system.cpu_cluster.cpus.branchPred.BTBLookups        10241                       # Number of BTB lookups (Count)
system.cpu_cluster.cpus.branchPred.BTBUpdates            2                       # Number of BTB updates (Count)
system.cpu_cluster.cpus.branchPred.BTBHits         6140                       # Number of BTB hits (Count)
system.cpu_cluster.cpus.branchPred.BTBHitRatio     0.599551                       # BTB Hit Ratio (Ratio)
system.cpu_cluster.cpus.branchPred.BTBMispredicted            1                       # Number BTB mispredictions. No target found or target wrong (Count)
system.cpu_cluster.cpus.branchPred.indirectLookups            0                       # Number of indirect predictor lookups. (Count)
system.cpu_cluster.cpus.branchPred.indirectHits            0                       # Number of indirect target hits. (Count)
system.cpu_cluster.cpus.branchPred.indirectMisses            0                       # Number of indirect misses. (Count)
system.cpu_cluster.cpus.branchPred.indirectMispredicted            0                       # Number of mispredicted indirect branches. (Count)
system.cpu_cluster.cpus.branchPred.btb.lookups::NoBranch            0      0.00%      0.00% # Number of BTB lookups (Count)
system.cpu_cluster.cpus.branchPred.btb.lookups::Return         2054     20.06%     20.06% # Number of BTB lookups (Count)
system.cpu_cluster.cpus.branchPred.btb.lookups::CallDirect         2052     20.04%     40.09% # Number of BTB lookups (Count)
system.cpu_cluster.cpus.branchPred.btb.lookups::CallIndirect            0      0.00%     40.09% # Number of BTB lookups (Count)
system.cpu_cluster.cpus.branchPred.btb.lookups::DirectCond         6135     59.91%    100.00% # Number of BTB lookups (Count)
system.cpu_cluster.cpus.branchPred.btb.lookups::DirectUncond            0      0.00%    100.00% # Number of BTB lookups (Count)
system.cpu_cluster.cpus.branchPred.btb.lookups::IndirectCond            0      0.00%    100.00% # Number of BTB lookups (Count)
system.cpu_cluster.cpus.branchPred.btb.lookups::IndirectUncond            0      0.00%    100.00% # Number of BTB lookups (Count)
system.cpu_cluster.cpus.branchPred.btb.lookups::total        10241                       # Number of BTB lookups (Count)
system.cpu_cluster.cpus.branchPred.btb.misses::NoBranch            0      0.00%      0.00% # Number of BTB misses (Count)
system.cpu_cluster.cpus.branchPred.btb.misses::Return         2054     50.09%     50.09% # Number of BTB misses (Count)
system.cpu_cluster.cpus.branchPred.btb.misses::CallDirect            2      0.05%     50.13% # Number of BTB misses (Count)
system.cpu_cluster.cpus.branchPred.btb.misses::CallIndirect            0      0.00%     50.13% # Number of BTB misses (Count)
system.cpu_cluster.cpus.branchPred.btb.misses::DirectCond         2045     49.87%    100.00% # Number of BTB misses (Count)
system.cpu_cluster.cpus.branchPred.btb.misses::DirectUncond            0      0.00%    100.00% # Number of BTB misses (Count)
system.cpu_cluster.cpus.branchPred.btb.misses::IndirectCond            0      0.00%    100.00% # Number of BTB misses (Count)
system.cpu_cluster.cpus.branchPred.btb.misses::IndirectUncond            0      0.00%    100.00% # Number of BTB misses (Count)
system.cpu_cluster.cpus.branchPred.btb.misses::total         4101                       # Number of BTB misses (Count)
system.cpu_cluster.cpus.branchPred.btb.updates::NoBranch            0      0.00%      0.00% # Number of BTB updates (Count)
system.cpu_cluster.cpus.branchPred.btb.updates::Return            0      0.00%      0.00% # Number of BTB updates (Count)
system.cpu_cluster.cpus.branchPred.btb.updates::CallDirect            1     50.00%     50.00% # Number of BTB updates (Count)
system.cpu_cluster.cpus.branchPred.btb.updates::CallIndirect            0      0.00%     50.00% # Number of BTB updates (Count)
system.cpu_cluster.cpus.branchPred.btb.updates::DirectCond            1     50.00%    100.00% # Number of BTB updates (Count)
system.cpu_cluster.cpus.branchPred.btb.updates::DirectUncond            0      0.00%    100.00% # Number of BTB updates (Count)
system.cpu_cluster.cpus.branchPred.btb.updates::IndirectCond            0      0.00%    100.00% # Number of BTB updates (Count)
system.cpu_cluster.cpus.branchPred.btb.updates::IndirectUncond            0      0.00%    100.00% # Number of BTB updates (Count)
system.cpu_cluster.cpus.branchPred.btb.updates::total            2                       # Number of BTB updates (Count)
system.cpu_cluster.cpus.branchPred.btb.mispredict::NoBranch            0      0.00%      0.00% # Number of BTB mispredictions. No target found or target wrong. (Count)
system.cpu_cluster.cpus.branchPred.btb.mispredict::Return            0      0.00%      0.00% # Number of BTB mispredictions. No target found or target wrong. (Count)
system.cpu_cluster.cpus.branchPred.btb.mispredict::CallDirect            1     50.00%     50.00% # Number of BTB mispredictions. No target found or target wrong. (Count)
system.cpu_cluster.cpus.branchPred.btb.mispredict::CallIndirect            0      0.00%     50.00% # Number of BTB mispredictions. No target found or target wrong. (Count)
system.cpu_cluster.cpus.branchPred.btb.mispredict::DirectCond            1     50.00%    100.00% # Number of BTB mispredictions. No target found or target wrong. (Count)
system.cpu_cluster.cpus.branchPred.btb.mispredict::DirectUncond            0      0.00%    100.00% # Number of BTB mispredictions. No target found or target wrong. (Count)
system.cpu_cluster.cpus.branchPred.btb.mispredict::IndirectCond            0      0.00%    100.00% # Number of BTB mispredictions. No target found or target wrong. (Count)
system.cpu_cluster.cpus.branchPred.btb.mispredict::IndirectUncond            0      0.00%    100.00% # Number of BTB mispredictions. No target found or target wrong. (Count)
system.cpu_cluster.cpus.branchPred.btb.mispredict::total            2                       # Number of BTB mispredictions. No target found or target wrong. (Count)
system.cpu_cluster.cpus.branchPred.btb.power_state.pwrStateResidencyTicks::UNDEFINED    192733508                       # Cumulative time (in ticks) in various power states (Tick)
system.cpu_cluster.cpus.branchPred.conditionalBranchPred.loop_predictor.used            0                       # Number of times the loop predictor is the provider. (Count)
system.cpu_cluster.cpus.branchPred.conditionalBranchPred.loop_predictor.correct            0                       # Number of times the loop predictor is the provider and the prediction is correct (Count)
system.cpu_cluster.cpus.branchPred.conditionalBranchPred.loop_predictor.wrong            0                       # Number of times the loop predictor is the provider and the prediction is wrong (Count)
system.cpu_cluster.cpus.branchPred.conditionalBranchPred.statistical_corrector.correct         4095                       # Number of time the SC predictor is the provider and the prediction is correct (Count)
system.cpu_cluster.cpus.branchPred.conditionalBranchPred.statistical_corrector.wrong         2049                       # Number of time the SC predictor is the provider and the prediction is wrong (Count)
system.cpu_cluster.cpus.branchPred.conditionalBranchPred.tage.longestMatchProviderCorrect         4082                       # Number of times TAGE Longest Match is the provider and the prediction is correct (Count)
system.cpu_cluster.cpus.branchPred.conditionalBranchPred.tage.altMatchProviderCorrect            8                       # Number of times TAGE Alt Match is the provider and the prediction is correct (Count)
system.cpu_cluster.cpus.branchPred.conditionalBranchPred.tage.bimodalAltMatchProviderCorrect            0                       # Number of times TAGE Alt Match is the bimodal and it is the provider and the prediction is correct (Count)
system.cpu_cluster.cpus.branchPred.conditionalBranchPred.tage.bimodalProviderCorrect         2052                       # Number of times there are no hits on the TAGE tables and the bimodal prediction is correct (Count)
system.cpu_cluster.cpus.branchPred.conditionalBranchPred.tage.longestMatchProviderWrong            2                       # Number of times TAGE Longest Match is the provider and the prediction is wrong (Count)
system.cpu_cluster.cpus.branchPred.conditionalBranchPred.tage.altMatchProviderWrong            0                       # Number of times TAGE Alt Match is the provider and the prediction is wrong (Count)
system.cpu_cluster.cpus.branchPred.conditionalBranchPred.tage.bimodalAltMatchProviderWrong            0                       # Number of times TAGE Alt Match is the bimodal and it is the provider and the prediction is wrong (Count)
system.cpu_cluster.cpus.branchPred.conditionalBranchPred.tage.bimodalProviderWrong            0                       # Number of times there are no hits on the TAGE tables and the bimodal prediction is wrong (Count)
system.cpu_cluster.cpus.branchPred.conditionalBranchPred.tage.altMatchProviderWouldHaveHit            1                       # Number of times TAGE Longest Match is the provider, the prediction is wrong and Alt Match prediction was correct (Count)
system.cpu_cluster.cpus.branchPred.conditionalBranchPred.tage.longestMatchProviderWouldHaveHit            0                       # Number of times TAGE Alt Match is the provider, the prediction is wrong and Longest Match prediction was correct (Count)
system.cpu_cluster.cpus.branchPred.conditionalBranchPred.tage.longestMatchProvider::0            0                       # TAGE provider for longest match (Count)
system.cpu_cluster.cpus.branchPred.conditionalBranchPred.tage.longestMatchProvider::1            0                       # TAGE provider for longest match (Count)
system.cpu_cluster.cpus.branchPred.conditionalBranchPred.tage.longestMatchProvider::2            1                       # TAGE provider for longest match (Count)
system.cpu_cluster.cpus.branchPred.conditionalBranchPred.tage.longestMatchProvider::3            0                       # TAGE provider for longest match (Count)
system.cpu_cluster.cpus.branchPred.conditionalBranchPred.tage.longestMatchProvider::4            0                       # TAGE provider for longest match (Count)
system.cpu_cluster.cpus.branchPred.conditionalBranchPred.tage.longestMatchProvider::5            0                       # TAGE provider for longest match (Count)
system.cpu_cluster.cpus.branchPred.conditionalBranchPred.tage.longestMatchProvider::6         2044                       # TAGE provider for longest match (Count)
system.cpu_cluster.cpus.branchPred.conditionalBranchPred.tage.longestMatchProvider::7            0                       # TAGE provider for longest match (Count)
system.cpu_cluster.cpus.branchPred.conditionalBranchPred.tage.longestMatchProvider::8            0                       # TAGE provider for longest match (Count)
system.cpu_cluster.cpus.branchPred.conditionalBranchPred.tage.longestMatchProvider::9            1                       # TAGE provider for longest match (Count)
system.cpu_cluster.cpus.branchPred.conditionalBranchPred.tage.longestMatchProvider::10            2                       # TAGE provider for longest match (Count)
system.cpu_cluster.cpus.branchPred.conditionalBranchPred.tage.longestMatchProvider::11            3                       # TAGE provider for longest match (Count)
system.cpu_cluster.cpus.branchPred.conditionalBranchPred.tage.longestMatchProvider::12            0                       # TAGE provider for longest match (Count)
system.cpu_cluster.cpus.branchPred.conditionalBranchPred.tage.longestMatchProvider::13            1                       # TAGE provider for longest match (Count)
system.cpu_cluster.cpus.branchPred.conditionalBranchPred.tage.longestMatchProvider::14            1                       # TAGE provider for longest match (Count)
system.cpu_cluster.cpus.branchPred.conditionalBranchPred.tage.longestMatchProvider::15         2039                       # TAGE provider for longest match (Count)
system.cpu_cluster.cpus.branchPred.conditionalBranchPred.tage.longestMatchProvider::16            0                       # TAGE provider for longest match (Count)
system.cpu_cluster.cpus.branchPred.conditionalBranchPred.tage.longestMatchProvider::17            0                       # TAGE provider for longest match (Count)
system.cpu_cluster.cpus.branchPred.conditionalBranchPred.tage.longestMatchProvider::18            0                       # TAGE provider for longest match (Count)
system.cpu_cluster.cpus.branchPred.conditionalBranchPred.tage.longestMatchProvider::19            0                       # TAGE provider for longest match (Count)
system.cpu_cluster.cpus.branchPred.conditionalBranchPred.tage.longestMatchProvider::20            0                       # TAGE provider for longest match (Count)
system.cpu_cluster.cpus.branchPred.conditionalBranchPred.tage.longestMatchProvider::21            0                       # TAGE provider for longest match (Count)
system.cpu_cluster.cpus.branchPred.conditionalBranchPred.tage.longestMatchProvider::22            0                       # TAGE provider for longest match (Count)
system.cpu_cluster.cpus.branchPred.conditionalBranchPred.tage.longestMatchProvider::23            0                       # TAGE provider for longest match (Count)
system.cpu_cluster.cpus.branchPred.conditionalBranchPred.tage.longestMatchProvider::24            0                       # TAGE provider for longest match (Count)
system.cpu_cluster.cpus.branchPred.conditionalBranchPred.tage.longestMatchProvider::25            0                       # TAGE provider for longest match (Count)
system.cpu_cluster.cpus.branchPred.conditionalBranchPred.tage.longestMatchProvider::26            0                       # TAGE provider for longest match (Count)
system.cpu_cluster.cpus.branchPred.conditionalBranchPred.tage.longestMatchProvider::27            0                       # TAGE provider for longest match (Count)
system.cpu_cluster.cpus.branchPred.conditionalBranchPred.tage.longestMatchProvider::28            0                       # TAGE provider for longest match (Count)
system.cpu_cluster.cpus.branchPred.conditionalBranchPred.tage.longestMatchProvider::29            0                       # TAGE provider for longest match (Count)
system.cpu_cluster.cpus.branchPred.conditionalBranchPred.tage.longestMatchProvider::30            0                       # TAGE provider for longest match (Count)
system.cpu_cluster.cpus.branchPred.conditionalBranchPred.tage.longestMatchProvider::31            0                       # TAGE provider for longest match (Count)
system.cpu_cluster.cpus.branchPred.conditionalBranchPred.tage.longestMatchProvider::32            0                       # TAGE provider for longest match (Count)
system.cpu_cluster.cpus.branchPred.conditionalBranchPred.tage.longestMatchProvider::33            0                       # TAGE provider for longest match (Count)
system.cpu_cluster.cpus.branchPred.conditionalBranchPred.tage.longestMatchProvider::34            0                       # TAGE provider for longest match (Count)
system.cpu_cluster.cpus.branchPred.conditionalBranchPred.tage.longestMatchProvider::35            0                       # TAGE provider for longest match (Count)
system.cpu_cluster.cpus.branchPred.conditionalBranchPred.tage.longestMatchProvider::36            0                       # TAGE provider for longest match (Count)
system.cpu_cluster.cpus.branchPred.conditionalBranchPred.tage.altMatchProvider::0            1                       # TAGE provider for alt match (Count)
system.cpu_cluster.cpus.branchPred.conditionalBranchPred.tage.altMatchProvider::1            0                       # TAGE provider for alt match (Count)
system.cpu_cluster.cpus.branchPred.conditionalBranchPred.tage.altMatchProvider::2         2044                       # TAGE provider for alt match (Count)
system.cpu_cluster.cpus.branchPred.conditionalBranchPred.tage.altMatchProvider::3            0                       # TAGE provider for alt match (Count)
system.cpu_cluster.cpus.branchPred.conditionalBranchPred.tage.altMatchProvider::4            0                       # TAGE provider for alt match (Count)
system.cpu_cluster.cpus.branchPred.conditionalBranchPred.tage.altMatchProvider::5            0                       # TAGE provider for alt match (Count)
system.cpu_cluster.cpus.branchPred.conditionalBranchPred.tage.altMatchProvider::6            3                       # TAGE provider for alt match (Count)
system.cpu_cluster.cpus.branchPred.conditionalBranchPred.tage.altMatchProvider::7            0                       # TAGE provider for alt match (Count)
system.cpu_cluster.cpus.branchPred.conditionalBranchPred.tage.altMatchProvider::8            0                       # TAGE provider for alt match (Count)
system.cpu_cluster.cpus.branchPred.conditionalBranchPred.tage.altMatchProvider::9            0                       # TAGE provider for alt match (Count)
system.cpu_cluster.cpus.branchPred.conditionalBranchPred.tage.altMatchProvider::10            4                       # TAGE provider for alt match (Count)
system.cpu_cluster.cpus.branchPred.conditionalBranchPred.tage.altMatchProvider::11         2040                       # TAGE provider for alt match (Count)
system.cpu_cluster.cpus.branchPred.conditionalBranchPred.tage.altMatchProvider::12            0                       # TAGE provider for alt match (Count)
system.cpu_cluster.cpus.branchPred.conditionalBranchPred.tage.altMatchProvider::13            0                       # TAGE provider for alt match (Count)
system.cpu_cluster.cpus.branchPred.conditionalBranchPred.tage.altMatchProvider::14            0                       # TAGE provider for alt match (Count)
system.cpu_cluster.cpus.branchPred.conditionalBranchPred.tage.altMatchProvider::15            0                       # TAGE provider for alt match (Count)
system.cpu_cluster.cpus.branchPred.conditionalBranchPred.tage.altMatchProvider::16            0                       # TAGE provider for alt match (Count)
system.cpu_cluster.cpus.branchPred.conditionalBranchPred.tage.altMatchProvider::17            0                       # TAGE provider for alt match (Count)
system.cpu_cluster.cpus.branchPred.conditionalBranchPred.tage.altMatchProvider::18            0                       # TAGE provider for alt match (Count)
system.cpu_cluster.cpus.branchPred.conditionalBranchPred.tage.altMatchProvider::19            0                       # TAGE provider for alt match (Count)
[...]
system.mem_ctrls1.dram.perBankRdBursts::8            0                       # Per bank write bursts (Count)
system.mem_ctrls1.dram.perBankRdBursts::9            0                       # Per bank write bursts (Count)
system.mem_ctrls1.dram.perBankRdBursts::10            0                       # Per bank write bursts (Count)
system.mem_ctrls1.dram.perBankRdBursts::11            0                       # Per bank write bursts (Count)
system.mem_ctrls1.dram.perBankRdBursts::12            0                       # Per bank write bursts (Count)
system.mem_ctrls1.dram.perBankRdBursts::13            0                       # Per bank write bursts (Count)
system.mem_ctrls1.dram.perBankRdBursts::14            0                       # Per bank write bursts (Count)
system.mem_ctrls1.dram.perBankRdBursts::15            0                       # Per bank write bursts (Count)
system.mem_ctrls1.dram.perBankRdBursts::16            0                       # Per bank write bursts (Count)
system.mem_ctrls1.dram.perBankRdBursts::17            0                       # Per bank write bursts (Count)
system.mem_ctrls1.dram.perBankRdBursts::18            0                       # Per bank write bursts (Count)
system.mem_ctrls1.dram.perBankRdBursts::19            1                       # Per bank write bursts (Count)
system.mem_ctrls1.dram.perBankRdBursts::20            4                       # Per bank write bursts (Count)
system.mem_ctrls1.dram.perBankRdBursts::21            0                       # Per bank write bursts (Count)
system.mem_ctrls1.dram.perBankRdBursts::22            0                       # Per bank write bursts (Count)
system.mem_ctrls1.dram.perBankRdBursts::23            0                       # Per bank write bursts (Count)
system.mem_ctrls1.dram.perBankRdBursts::24            0                       # Per bank write bursts (Count)
system.mem_ctrls1.dram.perBankRdBursts::25            0                       # Per bank write bursts (Count)
system.mem_ctrls1.dram.perBankRdBursts::26            0                       # Per bank write bursts (Count)
system.mem_ctrls1.dram.perBankRdBursts::27            0                       # Per bank write bursts (Count)
system.mem_ctrls1.dram.perBankRdBursts::28            0                       # Per bank write bursts (Count)
system.mem_ctrls1.dram.perBankRdBursts::29            0                       # Per bank write bursts (Count)
system.mem_ctrls1.dram.perBankRdBursts::30            0                       # Per bank write bursts (Count)
system.mem_ctrls1.dram.perBankRdBursts::31            9                       # Per bank write bursts (Count)
system.mem_ctrls1.dram.perBankWrBursts::0            0                       # Per bank write bursts (Count)
system.mem_ctrls1.dram.perBankWrBursts::1            0                       # Per bank write bursts (Count)
system.mem_ctrls1.dram.perBankWrBursts::2            0                       # Per bank write bursts (Count)
system.mem_ctrls1.dram.perBankWrBursts::3            0                       # Per bank write bursts (Count)
system.mem_ctrls1.dram.perBankWrBursts::4            0                       # Per bank write bursts (Count)
system.mem_ctrls1.dram.perBankWrBursts::5            0                       # Per bank write bursts (Count)
system.mem_ctrls1.dram.perBankWrBursts::6            0                       # Per bank write bursts (Count)
system.mem_ctrls1.dram.perBankWrBursts::7            0                       # Per bank write bursts (Count)
system.mem_ctrls1.dram.perBankWrBursts::8            0                       # Per bank write bursts (Count)
system.mem_ctrls1.dram.perBankWrBursts::9            0                       # Per bank write bursts (Count)
system.mem_ctrls1.dram.perBankWrBursts::10            0                       # Per bank write bursts (Count)
system.mem_ctrls1.dram.perBankWrBursts::11            0                       # Per bank write bursts (Count)
system.mem_ctrls1.dram.perBankWrBursts::12            0                       # Per bank write bursts (Count)
system.mem_ctrls1.dram.perBankWrBursts::13            0                       # Per bank write bursts (Count)
system.mem_ctrls1.dram.perBankWrBursts::14            0                       # Per bank write bursts (Count)
system.mem_ctrls1.dram.perBankWrBursts::15            0                       # Per bank write bursts (Count)
system.mem_ctrls1.dram.perBankWrBursts::16            0                       # Per bank write bursts (Count)
system.mem_ctrls1.dram.perBankWrBursts::17            0                       # Per bank write bursts (Count)
system.mem_ctrls1.dram.perBankWrBursts::18            0                       # Per bank write bursts (Count)
system.mem_ctrls1.dram.perBankWrBursts::19            0                       # Per bank write bursts (Count)
system.mem_ctrls1.dram.perBankWrBursts::20            0                       # Per bank write bursts (Count)
system.mem_ctrls1.dram.perBankWrBursts::21            0                       # Per bank write bursts (Count)
system.mem_ctrls1.dram.perBankWrBursts::22            0                       # Per bank write bursts (Count)
system.mem_ctrls1.dram.perBankWrBursts::23            0                       # Per bank write bursts (Count)
system.mem_ctrls1.dram.perBankWrBursts::24            0                       # Per bank write bursts (Count)
system.mem_ctrls1.dram.perBankWrBursts::25            0                       # Per bank write bursts (Count)
system.mem_ctrls1.dram.perBankWrBursts::26            0                       # Per bank write bursts (Count)
system.mem_ctrls1.dram.perBankWrBursts::27            0                       # Per bank write bursts (Count)
system.mem_ctrls1.dram.perBankWrBursts::28            0                       # Per bank write bursts (Count)
system.mem_ctrls1.dram.perBankWrBursts::29            0                       # Per bank write bursts (Count)
system.mem_ctrls1.dram.perBankWrBursts::30            0                       # Per bank write bursts (Count)
system.mem_ctrls1.dram.perBankWrBursts::31            0                       # Per bank write bursts (Count)
system.mem_ctrls1.dram.totQLat                 832882                       # Total ticks spent queuing (Tick)
system.mem_ctrls1.dram.totBusLat               153272                       # Total ticks spent in databus transfers (Tick)
system.mem_ctrls1.dram.totMemAccLat           1637514                       # Total ticks spent from burst creation until serviced by the DRAM (Tick)
system.mem_ctrls1.dram.avgQLat               18106.13                       # Average queueing delay per DRAM burst ((Tick/Count))
system.mem_ctrls1.dram.avgBusLat              3332.00                       # Average bus latency per DRAM burst ((Tick/Count))
system.mem_ctrls1.dram.avgMemAccLat          35598.13                       # Average memory access latency per DRAM burst ((Tick/Count))
system.mem_ctrls1.dram.readRowHits                 35                       # Number of row buffer hits during reads (Count)
system.mem_ctrls1.dram.writeRowHits                 0                       # Number of row buffer hits during writes (Count)
system.mem_ctrls1.dram.readRowHitRate           76.09                       # Row buffer hit rate for reads (Ratio)
system.mem_ctrls1.dram.writeRowHitRate            nan                       # Row buffer hit rate for writes (Ratio)
system.mem_ctrls1.dram.bytesPerActivate::samples            4                       # Bytes accessed per row activation (Byte)
system.mem_ctrls1.dram.bytesPerActivate::mean          272                       # Bytes accessed per row activation (Byte)
system.mem_ctrls1.dram.bytesPerActivate::gmean   221.702503                       # Bytes accessed per row activation (Byte)
system.mem_ctrls1.dram.bytesPerActivate::stdev   151.226100                       # Bytes accessed per row activation (Byte)
system.mem_ctrls1.dram.bytesPerActivate::64-95            1     25.00%     25.00% # Bytes accessed per row activation (Byte)
system.mem_ctrls1.dram.bytesPerActivate::256-287            1     25.00%     50.00% # Bytes accessed per row activation (Byte)
system.mem_ctrls1.dram.bytesPerActivate::384-415            2     50.00%    100.00% # Bytes accessed per row activation (Byte)
system.mem_ctrls1.dram.bytesPerActivate::total            4                       # Bytes accessed per row activation (Byte)
system.mem_ctrls1.dram.dramBytesRead             2944                       # Total bytes read (Byte)
system.mem_ctrls1.dram.dramBytesWritten             0                       # Total bytes written (Byte)
system.mem_ctrls1.dram.avgRdBW              66.767089                       # Average DRAM read bandwidth in MiBytes/s ((Byte/Second))
system.mem_ctrls1.dram.avgWrBW                      0                       # Average DRAM write bandwidth in MiBytes/s ((Byte/Second))
system.mem_ctrls1.dram.peakBW                19207.00                       # Theoretical peak bandwidth in MiByte/s ((Byte/Second))
system.mem_ctrls1.dram.busUtil                   0.35                       # Data bus utilization in percentage (Ratio)
system.mem_ctrls1.dram.busUtilRead               0.35                       # Data bus utilization in percentage for reads (Ratio)
system.mem_ctrls1.dram.busUtilWrite              0.00                       # Data bus utilization in percentage for writes (Ratio)
system.mem_ctrls1.dram.pageHitRate              76.09                       # Row buffer hit rate, read and write combined (Ratio)
system.mem_ctrls1.dram.power_state.pwrStateResidencyTicks::UNDEFINED    196988020                       # Cumulative time (in ticks) in various power states (Tick)
system.mem_ctrls1.dram.rank0.actEnergy   24950.016000                       # Energy for activate commands per rank (pJ) (Joule)
system.mem_ctrls1.dram.rank0.preEnergy   12439.022400                       # Energy for precharge commands per rank (pJ) (Joule)
system.mem_ctrls1.dram.rank0.readEnergy  130395.820800                       # Energy for read commands per rank (pJ) (Joule)
system.mem_ctrls1.dram.rank0.writeEnergy            0                       # Energy for write commands per rank (pJ) (Joule)
system.mem_ctrls1.dram.rank0.refreshEnergy 8312265.763200                       # Energy for refresh commands per rank (pJ) (Joule)
system.mem_ctrls1.dram.rank0.actBackEnergy 4924293.494400                       # Energy for active background per rank (pJ) (Joule)
system.mem_ctrls1.dram.rank0.preBackEnergy 25000939.622400                       # Energy for precharge background per rank (pJ) (Joule)
system.mem_ctrls1.dram.rank0.actPowerDownEnergy            0                       # Energy for active power-down per rank (pJ) (Joule)
system.mem_ctrls1.dram.rank0.prePowerDownEnergy            0                       # Energy for precharge power-down per rank (pJ) (Joule)
system.mem_ctrls1.dram.rank0.selfRefreshEnergy            0                       # Energy for self refresh per rank (pJ) (Joule)
system.mem_ctrls1.dram.rank0.totalEnergy 38405283.739200                       # Total energy per rank (pJ) (Joule)
system.mem_ctrls1.dram.rank0.averagePower   870.994910                       # Core power per rank (mW) (Watt)
system.mem_ctrls1.dram.rank0.totalIdleTime            0                       # Total Idle time Per DRAM Rank (Tick)
system.mem_ctrls1.dram.rank0.pwrStateTime::IDLE     42816528                       # Time in different power states (Tick)
system.mem_ctrls1.dram.rank0.pwrStateTime::REF      2100000                       # Time in different power states (Tick)
system.mem_ctrls1.dram.rank0.pwrStateTime::SREF            0                       # Time in different power states (Tick)
system.mem_ctrls1.dram.rank0.pwrStateTime::PRE_PDN            0                       # Time in different power states (Tick)
system.mem_ctrls1.dram.rank0.pwrStateTime::ACT      3790532                       # Time in different power states (Tick)
system.mem_ctrls1.dram.rank0.pwrStateTime::ACT_PDN            0                       # Time in different power states (Tick)
system.mem_ctrls1.dram.rank1.actEnergy    9356.256000                       # Energy for activate commands per rank (pJ) (Joule)
system.mem_ctrls1.dram.rank1.preEnergy    4146.340800                       # Energy for precharge commands per rank (pJ) (Joule)
system.mem_ctrls1.dram.rank1.readEnergy  58888.435200                       # Energy for read commands per rank (pJ) (Joule)
system.mem_ctrls1.dram.rank1.writeEnergy            0                       # Energy for write commands per rank (pJ) (Joule)
system.mem_ctrls1.dram.rank1.refreshEnergy 8312265.763200                       # Energy for refresh commands per rank (pJ) (Joule)
system.mem_ctrls1.dram.rank1.actBackEnergy 3808931.817600                       # Energy for active background per rank (pJ) (Joule)
system.mem_ctrls1.dram.rank1.preBackEnergy 25857940.684800                       # Energy for precharge background per rank (pJ) (Joule)
system.mem_ctrls1.dram.rank1.actPowerDownEnergy            0                       # Energy for active power-down per rank (pJ) (Joule)
system.mem_ctrls1.dram.rank1.prePowerDownEnergy            0                       # Energy for precharge power-down per rank (pJ) (Joule)
system.mem_ctrls1.dram.rank1.selfRefreshEnergy            0                       # Energy for self refresh per rank (pJ) (Joule)
system.mem_ctrls1.dram.rank1.totalEnergy 38051529.297600                       # Total energy per rank (pJ) (Joule)
system.mem_ctrls1.dram.rank1.averagePower   862.972099                       # Core power per rank (mW) (Watt)
system.mem_ctrls1.dram.rank1.totalIdleTime            0                       # Total Idle time Per DRAM Rank (Tick)
system.mem_ctrls1.dram.rank1.pwrStateTime::IDLE     44129244                       # Time in different power states (Tick)
system.mem_ctrls1.dram.rank1.pwrStateTime::REF      2100000                       # Time in different power states (Tick)
system.mem_ctrls1.dram.rank1.pwrStateTime::SREF            0                       # Time in different power states (Tick)
system.mem_ctrls1.dram.rank1.pwrStateTime::PRE_PDN            0                       # Time in different power states (Tick)
system.mem_ctrls1.dram.rank1.pwrStateTime::ACT      2477816                       # Time in different power states (Tick)
system.mem_ctrls1.dram.rank1.pwrStateTime::ACT_PDN            0                       # Time in different power states (Tick)
system.mem_ctrls1.power_state.pwrStateResidencyTicks::UNDEFINED    196988020                       # Cumulative time (in ticks) in various power states (Tick)
system.membus.transDist::ReadResp                  89                       # Transaction distribution (Count)
system.membus.transDist::ReadExReq                  4                       # Transaction distribution (Count)
system.membus.transDist::ReadExResp                 4                       # Transaction distribution (Count)
system.membus.transDist::ReadCleanReq              90                       # Transaction distribution (Count)
system.membus.pktCount_system.cpu_cluster.l2.mem_side_port::system.mem_ctrls0.port           96                       # Packet count per connected requestor and responder (Count)
system.membus.pktCount_system.cpu_cluster.l2.mem_side_port::system.mem_ctrls1.port           91                       # Packet count per connected requestor and responder (Count)
system.membus.pktCount_system.cpu_cluster.l2.mem_side_port::total          187                       # Packet count per connected requestor and responder (Count)
system.membus.pktCount::total                     187                       # Packet count per connected requestor and responder (Count)
system.membus.pktSize_system.cpu_cluster.l2.mem_side_port::system.mem_ctrls0.port         3072                       # Cumulative packet size per connected requestor and responder (Byte)
system.membus.pktSize_system.cpu_cluster.l2.mem_side_port::system.mem_ctrls1.port         2880                       # Cumulative packet size per connected requestor and responder (Byte)
system.membus.pktSize_system.cpu_cluster.l2.mem_side_port::total         5952                       # Cumulative packet size per connected requestor and responder (Byte)
system.membus.pktSize::total                     5952                       # Cumulative packet size per connected requestor and responder (Byte)
system.membus.snoops                                0                       # Total snoops (Count)
system.membus.snoopTraffic                          0                       # Total snoop traffic (Byte)
system.membus.snoopFanout::samples                 94                       # Request fanout histogram (Count)
system.membus.snoopFanout::mean                     0                       # Request fanout histogram (Count)
system.membus.snoopFanout::stdev                    0                       # Request fanout histogram (Count)
system.membus.snoopFanout::underflows               0      0.00%      0.00% # Request fanout histogram (Count)
system.membus.snoopFanout::0                       94    100.00%    100.00% # Request fanout histogram (Count)
system.membus.snoopFanout::1                        0      0.00%    100.00% # Request fanout histogram (Count)
system.membus.snoopFanout::overflows                0      0.00%    100.00% # Request fanout histogram (Count)
system.membus.snoopFanout::min_value                0                       # Request fanout histogram (Count)
system.membus.snoopFanout::max_value                0                       # Request fanout histogram (Count)
system.membus.snoopFanout::total                   94                       # Request fanout histogram (Count)
system.membus.power_state.pwrStateResidencyTicks::UNDEFINED    196988020                       # Cumulative time (in ticks) in various power states (Tick)
system.membus.reqLayer0.occupancy               69556                       # Layer occupancy (ticks) (Tick)
system.membus.reqLayer0.utilization               0.0                       # Layer utilization (Ratio)
system.membus.reqLayer1.occupancy               65731                       # Layer occupancy (ticks) (Tick)
system.membus.reqLayer1.utilization               0.0                       # Layer utilization (Ratio)
system.membus.respLayer0.occupancy             501570                       # Layer occupancy (ticks) (Tick)
system.membus.respLayer0.utilization              0.0                       # Layer utilization (Ratio)
system.membus.snoop_filter.totRequests             94                       # Total number of requests made to the snoop filter. (Count)
system.membus.snoop_filter.hitSingleRequests            1                       # Number of requests hitting in the snoop filter with a single holder of the requested data. (Count)
system.membus.snoop_filter.hitMultiRequests            0                       # Number of requests hitting in the snoop filter with multiple (>1) holders of the requested data. (Count)
system.membus.snoop_filter.totSnoops                0                       # Total number of snoops made to the snoop filter. (Count)
system.membus.snoop_filter.hitSingleSnoops            0                       # Number of snoops hitting in the snoop filter with a single holder of the requested data. (Count)
system.membus.snoop_filter.hitMultiSnoops            0                       # Number of snoops hitting in the snoop filter with multiple (>1) holders of the requested data. (Count)
system.voltage_domain.voltage                3.300000                       # Voltage in Volts (Volt)
system.workload.inst.arm                            0                       # number of arm instructions executed (Count)
system.workload.inst.quiesce                        0                       # number of quiesce instructions executed (Count)

---------- End Simulation Statistics   ----------
